B1
                    3D
 Schrodinger Suite 2024-2.
 65 69  0  0  1  0            999 V2000
    1.6938   18.2271   28.2560 C   0  0  0  0  0  0
    0.2185   17.8945   28.4553 C   0  0  0  0  0  0
   -0.2678   19.0195   29.3614 C   0  0  0  0  0  0
    1.5660   20.3381   26.7567 C   0  0  2  0  0  0
    0.3041   21.8571   24.8948 N   0  0  0  0  0  0
    0.8802   22.4996   25.9170 C   0  0  0  0  0  0
   -3.6357   20.0365   17.2595 C   0  0  0  0  0  0
   -1.6705   21.0148   18.4999 C   0  0  0  0  0  0
   -3.9997   21.3021   19.4635 C   0  0  0  0  0  0
   -5.0959   21.6333   20.3452 C   0  0  0  0  0  0
   -6.2779   21.0054   20.0066 C   0  0  0  0  0  0
   -2.3362   23.2385   19.2370 C   0  0  0  0  0  0
   -1.0505   21.8327   22.9249 C   0  0  0  0  0  0
    0.9517   21.0043   30.2188 C   0  0  0  0  0  0
   -0.3875   22.5779   24.0181 C   0  0  0  0  0  0
    0.8369   23.8905   26.0231 C   0  0  0  0  0  0
   -2.3435   20.8326   17.1314 C   0  0  0  0  0  0
   -2.5314   21.7463   19.5693 C   0  0  2  0  0  0
   -4.4350   20.5024   18.4263 C   0  0  0  0  0  0
   -1.9670   21.5238   20.9611 C   0  0  0  0  0  0
    1.7217   19.7661   28.1895 C   0  0  1  0  0  0
   -4.8772   22.5299   21.4322 C   0  0  0  0  0  0
    2.7520   19.9708   25.8369 C   0  0  0  0  0  0
    0.1054   24.5559   25.0359 C   0  0  0  0  0  0
   -0.4992   23.9050   24.0400 N   0  0  0  0  0  0
    0.5795   20.1907   29.0426 N   0  3  1  0  0  0
   -1.1944   20.4828   22.6855 C   0  0  0  0  0  0
   -1.5681   22.4696   21.8051 N   0  0  0  0  0  0
   -7.5307   21.0326   20.6077 N   0  0  0  0  0  0
   -4.6028   23.2645   22.2814 N   0  0  0  0  0  0
   -1.8016   20.2702   21.4667 O   0  0  0  0  0  0
    1.5680   21.7622   26.8646 O   0  0  0  0  0  0
   -6.1025   20.0489   18.5732 S   0  0  0  0  0  0
    2.1235   17.7251   27.3913 H   0  0  0  0  0  0
    2.2561   17.8908   29.1281 H   0  0  0  0  0  0
    0.0501   16.9030   28.8770 H   0  0  0  0  0  0
   -0.3183   17.9524   27.5074 H   0  0  0  0  0  0
   -0.1397   18.7306   30.4051 H   0  0  0  0  0  0
   -1.3257   19.2414   29.2114 H   0  0  0  0  0  0
    0.6316   19.9449   26.3544 H   0  0  0  0  0  0
   -3.3977   18.9840   17.3788 H   0  0  0  0  0  0
   -4.2188   20.1162   16.3409 H   0  0  0  0  0  0
   -0.7489   21.5652   18.3264 H   0  0  0  0  0  0
   -1.4175   20.0180   18.8623 H   0  0  0  0  0  0
   -2.9728   23.8950   19.8301 H   0  0  0  0  0  0
   -1.3092   23.5589   19.4189 H   0  0  0  0  0  0
   -2.4963   23.4126   18.1836 H   0  0  0  0  0  0
    1.4726   21.9073   29.8978 H   0  0  0  0  0  0
    0.0525   21.3218   30.7490 H   0  0  0  0  0  0
    1.5899   20.4510   30.9071 H   0  0  0  0  0  0
    1.2977   24.4144   26.8436 H   0  0  0  0  0  0
   -2.5645   21.8044   16.6971 H   0  0  0  0  0  0
   -1.6585   20.3612   16.4332 H   0  0  0  0  0  0
    2.6645   20.1330   28.5977 H   0  0  0  0  0  0
    2.6086   20.3853   24.8386 H   0  0  0  0  0  0
    3.6908   20.3702   26.2216 H   0  0  0  0  0  0
    2.8812   18.8993   25.7126 H   0  0  0  0  0  0
    0.0002   25.6301   25.0511 H   0  0  0  0  0  0
   -0.0349   20.8401   28.5003 H   0  0  0  0  0  0
   -8.3317   20.5375   20.1921 H   0  0  0  0  0  0
   -7.8005   21.7712   21.2394 H   0  0  0  0  0  0
   -0.7542   19.2891   23.4589 C   0  0  0  0  0  0
   -1.3953   18.4335   23.2757 H   0  0  0  0  0  0
   -0.7792   19.4865   24.5307 H   0  0  0  0  0  0
    0.2701   19.0294   23.1935 H   0  0  0  0  0  0
  1  2  1  0  0  0
  1 21  1  0  0  0
  1 34  1  0  0  0
  1 35  1  0  0  0
  2  3  1  0  0  0
  2 36  1  0  0  0
  2 37  1  0  0  0
  3 26  1  0  0  0
  3 38  1  0  0  0
  3 39  1  0  0  0
  4 21  1  0  0  0
  4 23  1  0  0  0
  4 32  1  0  0  0
  4 40  1  0  0  0
  5  6  2  0  0  0
  5 15  1  0  0  0
  6 16  1  0  0  0
  6 32  1  0  0  0
  7 17  1  0  0  0
  7 19  1  0  0  0
  7 41  1  0  0  0
  7 42  1  0  0  0
  8 17  1  0  0  0
  8 18  1  0  0  0
  8 43  1  0  0  0
  8 44  1  0  0  0
  9 10  1  0  0  0
  9 18  1  0  0  0
  9 19  2  0  0  0
 10 11  2  0  0  0
 10 22  1  0  0  0
 11 29  1  0  0  0
 11 33  1  0  0  0
 12 18  1  0  0  0
 12 45  1  0  0  0
 12 46  1  0  0  0
 12 47  1  0  0  0
 13 15  1  0  0  0
 13 27  2  0  0  0
 13 28  1  0  0  0
 14 26  1  0  0  0
 14 48  1  0  0  0
 14 49  1  0  0  0
 14 50  1  0  0  0
 15 25  2  0  0  0
 16 24  2  0  0  0
 16 51  1  0  0  0
 17 52  1  0  0  0
 17 53  1  0  0  0
 18 20  1  0  0  0
 19 33  1  0  0  0
 20 28  2  0  0  0
 20 31  1  0  0  0
 21 26  1  0  0  0
 21 54  1  0  0  0
 22 30  3  0  0  0
 23 55  1  0  0  0
 23 56  1  0  0  0
 23 57  1  0  0  0
 24 25  1  0  0  0
 24 58  1  0  0  0
 26 59  1  0  0  0
 27 31  1  0  0  0
 27 62  1  0  0  0
 29 60  1  0  0  0
 29 61  1  0  0  0
 62 63  1  0  0  0
 62 64  1  0  0  0
 62 65  1  0  0  0
M  CHG  1  26   1
M  END
> <i_m_Source_File_Index>
1

> <i_pdb_PDB_CRYST1_z>
4

> <b_m_subgroup_collapsed>
0

> <b_ppw_created_disulfur>
1

> <b_ppw_prepared>
1

> <r_i_Bend_Energy-S-OPLS>
356.149

> <r_i_Dihedral_Energy-S-OPLS>
376.476

> <r_i_El-14_Energy-S-OPLS>
252.602

> <r_i_Electrostatic_Energy-S-OPLS>
-1570.81

> <r_i_LJ-14_Energy-S-OPLS>
869.218

> <r_i_Max_Derivative-S-OPLS>
2.30703

> <r_i_Potential_Energy-S-OPLS>
-1471.26

> <r_i_RMS_Derivative-S-OPLS>
0.109469

> <r_i_Stretch_Energy-S-OPLS>
77.359

> <r_i_Van_der_Waals_Energy-S-OPLS>
-1891.05

> <r_i_target_temperature>
298

> <r_pdb_PDB_CRYST1_a>
87.158

> <r_pdb_PDB_CRYST1_alpha>
90

> <r_pdb_PDB_CRYST1_b>
40.545

> <r_pdb_PDB_CRYST1_beta>
90

> <r_pdb_PDB_CRYST1_c>
55.943

> <r_pdb_PDB_CRYST1_gamma>
90

> <r_pdb_PDB_EXPDTA_TEMPERATURE>
100

> <r_pdb_PDB_R>
0.164

> <r_pdb_PDB_RESOLUTION>
1.09

> <r_pdb_PDB_Rfree>
0.197

> <r_ppw_preprocess_pH>
7.4

> <s_m_Source_File>
proteinprep_3-out.maegz

> <s_m_Source_Path>
/data/eric.chen/projects/NRAS/SWII_inhibitors/modeling/proteinprep_3

> <s_m_backendhidden_zob_param>
ewogICAiYW5nbGUiIDogWwogICAgICB7CiAgICAgICAgICJmb3JjZV9jb25zdGFudCIgOiA2MCwKICAgICAgICAgImkiIDogMjczNiwKICAgICAgICAgImoiIDogMjUwLAogICAgICAgICAiayIgOiAyNDksCiAgICAgICAgICJyZWZlcmVuY2VfdmFsdWUiIDogMi4yNTU2NjQ5MzkxMzA2MjQ3CiAgICAgIH0sCiAgICAgIHsKICAgICAgICAgImZvcmNlX2NvbnN0YW50IiA6IDAsCiAgICAgICAgICJpIiA6IDI3MzYsCiAgICAgICAgICJqIiA6IDI1MCwKICAgICAgICAgImsiIDogMjU1LAogICAgICAgICAicmVmZXJlbmNlX3ZhbHVlIiA6IDIuMTA1NjAzODQ0NDQ0NTUxNQogICAgICB9LAogICAgICB7CiAgICAgICAgICJmb3JjZV9jb25zdGFudCIgOiA2MCwKICAgICAgICAgImkiIDogMjczNiwKICAgICAgICAgImoiIDogMjY5OCwKICAgICAgICAgImsiIDogMjY5NiwKICAgICAgICAgInJlZmVyZW5jZV92YWx1ZSIgOiAyLjMyMjUzMDY2NjE4MTgzOTkKICAgICAgfSwKICAgICAgewogICAgICAgICAiZm9yY2VfY29uc3RhbnQiIDogNjAsCiAgICAgICAgICJpIiA6IDI1MCwKICAgICAgICAgImoiIDogMjczNiwKICAgICAgICAgImsiIDogMjY5OCwKICAgICAgICAgInJlZmVyZW5jZV92YWx1ZSIgOiAxLjU4NzY5NDk1MTQ5NTI3NzIKICAgICAgfSwKICAgICAgewogICAgICAgICAiZm9yY2VfY29uc3RhbnQiIDogNjAsCiAgICAgICAgICJpIiA6IDI1MCwKICAgICAgICAgImoiIDogMjczNiwKICAgICAgICAgImsiIDogMjkxMywKICAgICAgICAgInJlZmVyZW5jZV92YWx1ZSIgOiAxLjU2MTM1OTY0MTk0Mjk1OTQKICAgICAgfSwKICAgICAgewogICAgICAgICAiZm9yY2VfY29uc3RhbnQiIDogNjAsCiAgICAgICAgICJpIiA6IDI1MCwKICAgICAgICAgImoiIDogMjczNiwKICAgICAgICAgImsiIDogMjk0NiwKICAgICAgICAgInJlZmVyZW5jZV92YWx1ZSIgOiAxLjQ5NzIzMjc0NTA1MzAxOTgKICAgICAgfSwKICAgICAgewogICAgICAgICAiZm9yY2VfY29uc3RhbnQiIDogNjAsCiAgICAgICAgICJpIiA6IDI1MCwKICAgICAgICAgImoiIDogMjczNiwKICAgICAgICAgImsiIDogMzA3NSwKICAgICAgICAgInJlZmVyZW5jZV92YWx1ZSIgOiAxLjU3MjYyNzI1NDgxNTMxMTEKICAgICAgfSwKICAgICAgewogICAgICAgICAiZm9yY2VfY29uc3RhbnQiIDogNjAsCiAgICAgICAgICJpIiA6IDI2OTgsCiAgICAgICAgICJqIiA6IDI3MzYsCiAgICAgICAgICJrIiA6IDI5MTMsCiAgICAgICAgICJyZWZlcmVuY2VfdmFsdWUiIDogMS41NjgzMzM2Mjc2NTQ2MjM2CiAgICAgIH0sCiAgICAgIHsKICAgICAgICAgImZvcmNlX2NvbnN0YW50IiA6IDYwLAogICAgICAgICAiaSIgOiAyNjk4LAogICAgICAgICAiaiIgOiAyNzM2LAogICAgICAgICAiayIgOiAyOTQ2LAogICAgICAgICAicmVmZXJlbmNlX3ZhbHVlIiA6IDEuNjI3MzcwMjQzNTQxNzI5OQogICAgICB9LAogICAgICB7CiAgICAgICAgICJmb3JjZV9jb25zdGFudCIgOiA2MCwKICAgICAgICAgImkiIDogMjY5OCwKICAgICAgICAgImoiIDogMjczNiwKICAgICAgICAgImsiIDogMjk4NSwKICAgICAgICAgInJlZmVyZW5jZV92YWx1ZSIgOiAxLjU3OTIyNTY0NDUxMDIyMDYKICAgICAgfSwKICAgICAgewogICAgICAgICAiZm9yY2VfY29uc3RhbnQiIDogNjAsCiAgICAgICAgICJpIiA6IDI5MTMsCiAgICAgICAgICJqIiA6IDI3MzYsCiAgICAgICAgICJrIiA6IDI5ODUsCiAgICAgICAgICJyZWZlcmVuY2VfdmFsdWUiIDogMS42NTM3ODA2ODIwNzIyMTcKICAgICAgfSwKICAgICAgewogICAgICAgICAiZm9yY2VfY29uc3RhbnQiIDogNjAsCiAgICAgICAgICJpIiA6IDI5MTMsCiAgICAgICAgICJqIiA6IDI3MzYsCiAgICAgICAgICJrIiA6IDMwNzUsCiAgICAgICAgICJyZWZlcmVuY2VfdmFsdWUiIDogMS40OTgzMjU3OTE0MDkzMTUxCiAgICAgIH0sCiAgICAgIHsKICAgICAgICAgImZvcmNlX2NvbnN0YW50IiA6IDYwLAogICAgICAgICAiaSIgOiAyOTQ2LAogICAgICAgICAiaiIgOiAyNzM2LAogICAgICAgICAiayIgOiAyOTg1LAogICAgICAgICAicmVmZXJlbmNlX3ZhbHVlIiA6IDEuNTY5NTY2NDA1NDAxMTgyNgogICAgICB9LAogICAgICB7CiAgICAgICAgICJmb3JjZV9jb25zdGFudCIgOiA2MCwKICAgICAgICAgImkiIDogMjk0NiwKICAgICAgICAgImoiIDogMjczNiwKICAgICAgICAgImsiIDogMzA3NSwKICAgICAgICAgInJlZmVyZW5jZV92YWx1ZSIgOiAxLjU5MDUwMzUwMTc3MTQzNDQKICAgICAgfSwKICAgICAgewogICAgICAgICAiZm9yY2VfY29uc3RhbnQiIDogNjAsCiAgICAgICAgICJpIiA6IDI5ODUsCiAgICAgICAgICJqIiA6IDI3MzYsCiAgICAgICAgICJrIiA6IDMwNzUsCiAgICAgICAgICJyZWZlcmVuY2VfdmFsdWUiIDogMS41NDkyNzA0OTkxNDYxNDY2CiAgICAgIH0sCiAgICAgIHsKICAgICAgICAgImZvcmNlX2NvbnN0YW50IiA6IDAsCiAgICAgICAgICJpIiA6IDI3MzYsCiAgICAgICAgICJqIiA6IDI5MTMsCiAgICAgICAgICJrIiA6IDI5MTQsCiAgICAgICAgICJyZWZlcmVuY2VfdmFsdWUiIDogMi40MDA5Njk2MTEyNjQ5MDE3CiAgICAgIH0sCiAgICAgIHsKICAgICAgICAgImZvcmNlX2NvbnN0YW50IiA6IDAsCiAgICAgICAgICJpIiA6IDI3MzYsCiAgICAgICAgICJqIiA6IDI5MTMsCiAgICAgICAgICJrIiA6IDI5MTUsCiAgICAgICAgICJyZWZlcmVuY2VfdmFsdWUiIDogMi4wMTMzMTY0NjQ1NDEzMjg2CiAgICAgIH0sCiAgICAgIHsKICAgICAgICAgImZvcmNlX2NvbnN0YW50IiA6IDAsCiAgICAgICAgICJpIiA6IDI3MzYsCiAgICAgICAgICJqIiA6IDI5NDYsCiAgICAgICAgICJrIiA6IDI5NDcsCiAgICAgICAgICJyZWZlcmVuY2VfdmFsdWUiIDogMi4zNzUyMDE5Nzc5ODUyODkzCiAgICAgIH0sCiAgICAgIHsKICAgICAgICAgImZvcmNlX2NvbnN0YW50IiA6IDAsCiAgICAgICAgICJpIiA6IDI3MzYsCiAgICAgICAgICJqIiA6IDI5NDYsCiAgICAgICAgICJrIiA6IDI5NDgsCiAgICAgICAgICJyZWZlcmVuY2VfdmFsdWUiIDogMi4wMjQwMjg4NDc4MzMyMzk2CiAgICAgIH0sCiAgICAgIHsKICAgICAgICAgImZvcmNlX2NvbnN0YW50IiA6IDAsCiAgICAgICAgICJpIiA6IDI3MzYsCiAgICAgICAgICJqIiA6IDI5ODUsCiAgICAgICAgICJrIiA6IDI5ODYsCiAgICAgICAgICJyZWZlcmVuY2VfdmFsdWUiIDogMi4yMzY3MTU3OTc5NTU1Mjk5CiAgICAgIH0sCiAgICAgIHsKICAgICAgICAgImZvcmNlX2NvbnN0YW50IiA6IDAsCiAgICAgICAgICJpIiA6IDI3MzYsCiAgICAgICAgICJqIiA6IDI5ODUsCiAgICAgICAgICJrIiA6IDI5ODcsCiAgICAgICAgICJyZWZlcmVuY2VfdmFsdWUiIDogMS43OTc3MDA2MzkzNDkwMTYKICAgICAgfSwKICAgICAgewogICAgICAgICAiZm9yY2VfY29uc3RhbnQiIDogMCwKICAgICAgICAgImkiIDogMjczNiwKICAgICAgICAgImoiIDogMzA3NSwKICAgICAgICAgImsiIDogMzA3NiwKICAgICAgICAgInJlZmVyZW5jZV92YWx1ZSIgOiAyLjE5OTE2MDEyNjk4NDc4NjIKICAgICAgfSwKICAgICAgewogICAgICAgICAiZm9yY2VfY29uc3RhbnQiIDogMCwKICAgICAgICAgImkiIDogMjczNiwKICAgICAgICAgImoiIDogMzA3NSwKICAgICAgICAgImsiIDogMzA3NywKICAgICAgICAgInJlZmVyZW5jZV92YWx1ZSIgOiAyLjE5NDk0NDc5ODA5MDgyNjMKICAgICAgfQogICBdLAogICAiYm9uZCIgOiBbCiAgICAgIHsKICAgICAgICAgImZvcmNlX2NvbnN0YW50IiA6IDMwMCwKICAgICAgICAgImkiIDogMjUwLAogICAgICAgICAiaiIgOiAyNzM2LAogICAgICAgICAicmVmZXJlbmNlX3ZhbHVlIiA6IDIuMTQ3MjE0NTIzMTI3NTc1OQogICAgICB9LAogICAgICB7CiAgICAgICAgICJmb3JjZV9jb25zdGFudCIgOiAzMDAsCiAgICAgICAgICJpIiA6IDI2OTgsCiAgICAgICAgICJqIiA6IDI3MzYsCiAgICAgICAgICJyZWZlcmVuY2VfdmFsdWUiIDogMi4wNzgzNDQ4NzY1OTA3NDcxCiAgICAgIH0sCiAgICAgIHsKICAgICAgICAgImZvcmNlX2NvbnN0YW50IiA6IDMwMCwKICAgICAgICAgImkiIDogMjczNiwKICAgICAgICAgImoiIDogMjkxMywKICAgICAgICAgInJlZmVyZW5jZV92YWx1ZSIgOiAyLjE2Mzg3NDM3NDM3MzE5NjMKICAgICAgfSwKICAgICAgewogICAgICAgICAiZm9yY2VfY29uc3RhbnQiIDogMzAwLAogICAgICAgICAiaSIgOiAyNzM2LAogICAgICAgICAiaiIgOiAyOTQ2LAogICAgICAgICAicmVmZXJlbmNlX3ZhbHVlIiA6IDIuMDk3MjQ3Mjk4Mzg3NTgwMwogICAgICB9LAogICAgICB7CiAgICAgICAgICJmb3JjZV9jb25zdGFudCIgOiAzMDAsCiAgICAgICAgICJpIiA6IDI3MzYsCiAgICAgICAgICJqIiA6IDI5ODUsCiAgICAgICAgICJyZWZlcmVuY2VfdmFsdWUiIDogMi4xNjA5MDU3ODMxMTk4OTUyCiAgICAgIH0sCiAgICAgIHsKICAgICAgICAgImZvcmNlX2NvbnN0YW50IiA6IDMwMCwKICAgICAgICAgImkiIDogMjczNiwKICAgICAgICAgImoiIDogMzA3NSwKICAgICAgICAgInJlZmVyZW5jZV92YWx1ZSIgOiAyLjEzNDA2OTY2MzY3OTQ2NjMKICAgICAgfQogICBdCn0K

> <s_m_entry_id>
32

> <s_m_entry_name>
8azy.1_ligand2

> <s_m_job_name>
proteinprep_3

> <s_m_subgroup_title>
proteinprep_3-out->8AZY - prepared_split_by_structure

> <s_m_subgroupid>
proteinprep_3-out->8AZY - prepared_split_by_structure

> <s_pdb_PDB_CLASSIFICATION>
ONCOPROTEIN

> <s_pdb_PDB_CRYST1_Space_Group>
P 21 21 2

> <s_pdb_PDB_DEPOSITION_DATE>
06-SEP-22

> <s_pdb_PDB_EXPDTA>
X-RAY DIFFRACTION

> <s_pdb_PDB_ID>
8AZY

> <s_pdb_PDB_REMARK_350_Biomolecule_1_Transform_1_Chains>
A

> <s_pdb_PDB_REMARK_350_Biomolecule_1_Transform_1_Matrix_1>
1.000000 0.000000 0.000000   0.000000;0.000000 1.000000 0.000000   0.000000;0.000000 0.000000 1.000000   0.000000

> <s_pdb_PDB_TITLE>
KRAS-G12D IN COMPLEX WITH BI-2865

> <s_pdb_PDB_format_version>
3.30

> <s_ppw_het_states>
eJztnGFP2zAQhv8K6meIfOfEdvdX0FRVrGyVOjq1MGlC/PfFZ5I3TltgFFhS7st0fuvkdX1+fMGB3U9mvxeb7XJ9M5t8OXOObHl+Vmvz1d0iKvcTqv+9vJ9c/Zhvvi+2sXFJtpqen5mv52d16AxCQsgILcISYYXQIfQIA0K4ebh5uHm4ebh5uHm4ebh5uHm4ebgFuAW4BbgFuAW4BbgFcavjyXrzrZ7ozvylqePU71GoTSgTuC/YVpBQppQwu2liORNcv4eH4EUIEIIIUwhiG6c9FzBS+UxmmJCYlJNcwNAllPzkQucelQgYuoSSsUwInR7yXWIiGTlN6SRkNiU1F1x7iXwmuc4FfBcJJe+EJZCynwtIQ6gw0rgSfi1u5qvbP/VSIC7Ic+02+bm4na9m6ZOlYHY/YZO6+GkVu7BH86Fub6/Wm0Ut3dytVnVzeXO9nm1vNx1lO1tvlt+X9T1r8Xq+2i7q616O8kWTce7EL4H5orO6lGal+ZPQbAqylp+EuShL26IcGwMEue2hZfmNQc4F1ydbQVaQ94Dc8pg/XWtFfhHIOabUJ1srsoI8eJC1Ir8XyFqRFeTjQO4+W//LgZdW5MOP1jnZWpEV5KGBrBX5vUDWiqwgv9lhlxbkl3Csh9afmGMqqHqOY+/jIkggc0HOTYdHslZkPbVWkkdA8gmeW1900jlslrUqH80yZQJ+yHlTlrngEGfhMMu2MD7Ir4WU6WncswPZPngaINmjK9LjIVurtJKt75r/M9k5t/qyWckeP9las/Xts5I9ErJP+/D7Y8jeeRrX19FK9rjI1pqt76eV7AGT/eoTtNHVbIPcDvsATUv20WA//5qLsQQOgE1YDofAdpV78k8mbeGMrRqwpRUGiPLoivRoUNYarSjr6fdHo7zzuK2H34ry6FDWqqyn3YryUFE+7fPtD0F55wFbj7cV5aGjrFVZz7MV5SGhfODY6/SK8nh+BVSr8tEoUya806spW7CJaXwK5WCMb1Cmwkypal5N2cIbNzyuR1ehx8O1lmjl+jmu40jiXfr/U29p2oVcmgqhQ+gRBoQtNyUZhISQEVqEcCO4EdwIbgQ3ghvDjeHGcGO4MdwYbgw3hhvDjds1VFq4WbhZuFm4WbhZuNm9W4JMe5rxR6ckcAmhkh4OgpMeGFzMTH5JElxPsB2XIDedNqv1UaCAHlMRpj2hc4+Y75SHXGAI1O+RBILA4mJ7wk4PblFMnWUBZQJ3BiZTaLkvYD6o6ru43tdPgjVwSULnEt9Lg1wt66e5RGYsri3GQk0Lk7Bcs4HJZ+LCmYDcctmzlS8u689iMadxdBZvc498JzJFvc0c+lPQSjoEjvM74bzls1ZoW6/el3aeN3RD2r8hGeRUNyTdkE5sQ+LCUXwIPLgh2aIMrtmP2obvNkLTePVmFMfEex6SbJCpy5nZ2VH3j/71g3l4+AuIi2i5

> <s_ppw_prepared_with_version>
2024-2

$$$$
